Circuit: * C:\Users\axelp\OneDrive\Bureau\CESI - BLOC\BLOC - TRAITEMENT DU SIGNAL\Escape No Game\Livrable 2\circuitRLC.asc

.OP point found by inspection.

Date: Sat Dec  9 12:15:13 2023
Total elapsed time: 0.128 seconds.

tnom = 27
temp = 27
method = trap
totiter = 0
traniter = 0
tranpoints = 0
accept = 0
rejected = 0
matrix size = 4
fillins = 1
solver = Normal
Avg thread counts: 20.0/0.0/0.0/8.3
Matrix Compiler1:       9 opcodes
Matrix Compiler2:      22 opcodes
